/*--------------------------------*- C++ -*----------------------------------*\
| =========                 |                                                 |
| \\      /  F ield         | OpenFOAM: The Open Source CFD Toolbox           |
|  \\    /   O peration     | Version:  v2012                                 |
|   \\  /    A nd           | Website:  www.openfoam.com                      |
|    \\/     M anipulation  |                                                 |
\*---------------------------------------------------------------------------*/
FoamFile
{
    version     2.0;
    format      ascii;
    class       dictionary;
    object      fvSolution;
}
// * * * * * * * * * * * * * * * * * * * * * * * * * * * * * * * * * * * * * //

solvers
{
    p
    {
        solver          PCG;
        preconditioner DIC;
        tolerance       1e-14;
        relTol          0;
        smoother        GaussSeidel;
    }

    pFinal
    {
        $p;
        tolerance       1e-15;
        relTol          0;
    }
    
    "pcorr.*"
    {
        $p
        tolerance       0.02;
        relTol          0;
    }    

    "(U|k|epsilon|omega|R|nuTilda)"
    {
        solver          smoothSolver;
        smoother        GaussSeidel;
        tolerance       1e-14;
        relTol          0;
    }
    
    UFinal
    {
        $U;
        tolerance       1e-15;
        relTol          0;
    }
    
    "cellDisplacement.*"
    {
        solver          PCG;
        preconditioner  DIC;
        tolerance       1e-08;
        relTol          0;
    }
}

PIMPLE
{
    correctPhi          yes;
    nOuterCorrectors 50;
    nCorrectors     2;
    nNonOrthogonalCorrectors 1;
    pRefCell        0;
    pRefValue       0;
    
    residualControl
    {
        U
        {
                tolerance  1e-8;
                relTol      0;
        }

     }    
}

// ************************************************************************* //
