/*--------------------------------*- C++ -*----------------------------------*\
| =========                 |                                                 |
| \\      /  F ield         | OpenFOAM: The Open Source CFD Toolbox           |
|  \\    /   O peration     | Version:  v2012                                 |
|   \\  /    A nd           | Website:  www.openfoam.com                      |
|    \\/     M anipulation  |                                                 |
\*---------------------------------------------------------------------------*/
FoamFile
{
    version     2.0;
    format      ascii;
    class       dictionary;
    object      fvSchemes;
}
// * * * * * * * * * * * * * * * * * * * * * * * * * * * * * * * * * * * * * //

ddtSchemes
{
    default         none;
    ddt(U)          backward;
}

gradSchemes
{
    default       none;
    grad(U)       leastSquares;
    grad(p)       Gauss linear;
    grad(Uupwind) cellLimited leastSquares 1.;
}

divSchemes
{
    default         none;
    //div(phi,U)      Gauss linearUpwind grad(Uupwind);
    div(((1|A(U))*IBForce))      Gauss linear;
    div(IBForce)      Gauss linear;
    div(phi,U)      Gauss linear;
}

laplacianSchemes
{
    default         none;

    laplacian(nu,U)  Gauss linear orthogonal;
    laplacian(rAf,p) Gauss linear orthogonal;

}

interpolationSchemes
{
    default         linear;
}

snGradSchemes
{
    default         orthogonal;
}


// ************************************************************************* //
